Cenario_2/Tabelas_02/SE_Curr_Elem_FP_1.0.Txt

CIRCUIT ELEMENT CURRENTS

(Currents into element from indicated bus)

Power Delivery Elements

  Bus     Phase    Magnitude, A     Angle      (Real)   +j  (Imag)

ELEMENT = "Vsource.SOURCE"
99            1           62.301 /_  104.0 =    -15.076 +j     60.45
99            2           62.301 /_  -16.0 =     59.889 +j   -17.168
99            3           62.301 /_ -136.0 =    -44.813 +j   -43.281
------------
99            0           62.301 /_  -76.0 =     15.076 +j    -60.45
99            0           62.301 /_  164.0 =    -59.889 +j    17.168
99            0           62.301 /_   44.0 =     44.813 +j    43.281

ELEMENT = "Line.TRECHO_99-1"
99            1           62.301 /_  -76.0 =     15.076 +j    -60.45
99            2           62.301 /_  164.0 =    -59.889 +j    17.168
99            3           62.301 /_   44.0 =     44.813 +j    43.281
------------
1             1           62.301 /_  104.0 =    -15.076 +j     60.45
1             2           62.301 /_  -16.0 =     59.889 +j   -17.168
1             3           62.301 /_ -136.0 =    -44.813 +j   -43.281

ELEMENT = "Line.TRECHO_1-2"
1             1           48.689 /_ -123.1 =    -26.554 +j   -40.811
1             2           48.689 /_  116.9 =    -22.066 +j    43.402
1             3           48.689 /_   -3.1 =      48.62 +j   -2.5908
------------
2             1           48.689 /_   56.9 =     26.554 +j    40.811
2             2           48.689 /_  -63.1 =     22.066 +j   -43.402
2             3           48.689 /_  176.9 =     -48.62 +j    2.5908

ELEMENT = "Line.TRECHO_2-6"
2             1           85.883 /_ -171.1 =    -84.843 +j    -13.33
2             2           85.883 /_   68.9 =     30.877 +j    80.141
2             3           85.883 /_  -51.1 =     53.965 +j   -66.811
------------
6             1           85.883 /_    8.9 =     84.843 +j     13.33
6             2           85.883 /_ -111.1 =    -30.877 +j   -80.141
6             3           85.883 /_  128.9 =    -53.965 +j    66.811

ELEMENT = "Line.TRECHO_6-7"
6             1            95.22 /_ -174.8 =    -94.828 +j   -8.6277
6             2            95.22 /_   65.2 =     39.942 +j    86.438
6             3            95.22 /_  -54.8 =     54.886 +j    -77.81
------------
7             1            95.22 /_    5.2 =     94.828 +j    8.6277
7             2            95.22 /_ -114.8 =    -39.942 +j   -86.438
7             3            95.22 /_  125.2 =    -54.886 +j     77.81

ELEMENT = "Line.TRECHO_1-5"
1             1           27.621 /_  -25.3 =     24.981 +j   -11.785
1             2           27.621 /_ -145.3 =    -22.696 +j   -15.742
1             3           27.621 /_   94.7 =    -2.2849 +j    27.527
------------
5             1           27.621 /_  154.7 =    -24.981 +j    11.785
5             2           27.621 /_   34.7 =     22.696 +j    15.742
5             3           27.621 /_  -85.3 =     2.2849 +j   -27.527

ELEMENT = "Line.TRECHO_2-3"
2             1           46.032 /_  -25.2 =     41.636 +j    -19.63
2             2           46.032 /_ -145.2 =    -37.818 +j   -26.243
2             3           46.032 /_   94.8 =    -3.8176 +j    45.873
------------
3             1           46.032 /_  154.8 =    -41.636 +j     19.63
3             2           46.032 /_   34.8 =     37.818 +j    26.243
3             3           46.032 /_  -85.2 =     3.8176 +j   -45.873

ELEMENT = "Line.TRECHO_3-4"
3             1           18.413 /_  -25.2 =     16.655 +j   -7.8525
3             2           18.413 /_ -145.2 =    -15.128 +j   -10.497
3             3           18.413 /_   94.8 =    -1.5269 +j     18.35
------------
4             1           18.413 /_  154.8 =    -16.655 +j    7.8525
4             2           18.413 /_   34.8 =     15.128 +j    10.497
4             3           18.413 /_  -85.2 =     1.5269 +j    -18.35

ELEMENT = "Transformer.TR1"
1             1           18.409 /_  -25.3 =     16.649 +j   -7.8543
1             2           18.409 /_ -145.3 =    -15.127 +j   -10.491
1             3           18.409 /_   94.7 =    -1.5225 +j    18.346
1             0                0 /_    0.0 =          0 +j         0
------------
BT-TR1        1           668.53 /_  124.7 =       -381 +j    549.33
BT-TR1        2           668.53 /_    4.7 =     666.24 +j    55.293
BT-TR1        3           668.53 /_ -115.3 =    -285.23 +j   -604.63
BT-TR1        0      1.3653E-007 /_  -58.6 =  7.1099E-008 +j -1.1656E-007

ELEMENT = "Transformer.TR2"
2             1           18.411 /_  -25.2 =     16.653 +j   -7.8508
2             2           18.411 /_ -145.2 =    -15.125 +j   -10.497
2             3           18.411 /_   94.8 =    -1.5275 +j    18.347
2             0                0 /_    0.0 =          0 +j         0
------------
BT-TR2        1            668.6 /_  124.8 =    -381.19 +j    549.29
BT-TR2        2            668.6 /_    4.8 =      666.3 +j    55.473
BT-TR2        3            668.6 /_ -115.2 =    -285.11 +j   -604.77
BT-TR2        0      1.3662E-007 /_  -58.6 =  7.1141E-008 +j -1.1663E-007

ELEMENT = "Transformer.TR3"
3             1           27.618 /_  -25.2 =     24.981 +j   -11.778
3             2           27.618 /_ -145.2 =     -22.69 +j   -15.745
3             3           27.618 /_   94.8 =    -2.2906 +j    27.523
3             0                0 /_    0.0 =          0 +j         0
------------
BT-TR3        1             1003 /_  124.8 =     -571.8 +j    824.02
BT-TR3        2             1003 /_    4.8 =     999.52 +j    83.187
BT-TR3        3             1003 /_ -115.2 =    -427.72 +j   -907.21
BT-TR3        0      2.0496E-007 /_  -58.6 =  1.0672E-007 +j -1.7498E-007

ELEMENT = "Transformer.TR4"
4             1           18.413 /_  -25.2 =     16.655 +j   -7.8525
4             2           18.413 /_ -145.2 =    -15.128 +j   -10.497
4             3           18.413 /_   94.8 =    -1.5269 +j     18.35
4             0                0 /_    0.0 =          0 +j         0
------------
BT-TR4        1           668.69 /_  124.8 =    -381.22 +j    549.38
BT-TR4        2           668.69 /_    4.8 =     666.39 +j    55.452
BT-TR4        3           668.69 /_ -115.2 =    -285.17 +j   -604.83
BT-TR4        0      1.3665E-007 /_  -58.6 =  7.1152E-008 +j -1.1667E-007

ELEMENT = "Transformer.TR5"
5             1           27.621 /_  -25.3 =     24.981 +j   -11.785
5             2           27.621 /_ -145.3 =    -22.696 +j   -15.742
5             3           27.621 /_   94.7 =    -2.2849 +j    27.527
5             0                0 /_    0.0 =          0 +j         0
------------
BT-TR5        1           1003.1 /_  124.7 =    -571.68 +j    824.23
BT-TR5        2           1003.1 /_    4.7 =     999.65 +j    82.977
BT-TR5        3           1003.1 /_ -115.3 =    -427.96 +j   -907.21
BT-TR5        0      2.0492E-007 /_  -58.6 =  1.0672E-007 +j -1.7494E-007

ELEMENT = "Transformer.TR6"
6             1           11.037 /_  -25.2 =     9.9858 +j    -4.702
6             2           11.037 /_ -145.2 =     -9.065 +j   -6.2969
6             3           11.037 /_   94.8 =    -0.9208 +j    10.999
6             0                0 /_    0.0 =          0 +j         0
------------
BT-TR6        1           400.83 /_  124.8 =    -228.68 +j     329.2
BT-TR6        2           400.83 /_    4.8 =     399.44 +j     33.44
BT-TR6        3           400.83 /_ -115.2 =    -170.76 +j   -362.64
BT-TR6        0      8.1919E-008 /_  -58.6 =  4.2701E-008 +j -6.991E-008

ELEMENT = "Transformer.TR7"
7             1           8.2707 /_  -25.2 =     7.4836 +j   -3.5215
7             2           8.2707 /_ -145.2 =    -6.7915 +j   -4.7202
7             3           8.2707 /_   94.8 =    -0.6921 +j    8.2417
7             0                0 /_    0.0 =          0 +j         0
------------
BT-TR7        1           300.36 /_  124.8 =    -171.42 +j    246.64
BT-TR7        2           300.36 /_    4.8 =     299.31 +j    25.135
BT-TR7        3           300.36 /_ -115.2 =    -127.89 +j   -271.77
BT-TR7        0      6.1388E-008 /_  -58.6 =  3.202E-008 +j -5.2376E-008

ELEMENT = "Transformer.TR_AC1"
TR_ACOPL1     1           3720.2 /_    2.9 =     3715.5 +j    185.43
TR_ACOPL1     2           3720.2 /_ -117.1 =    -1697.2 +j   -3310.5
TR_ACOPL1     3           3720.2 /_  122.9 =    -2018.4 +j      3125
TR_ACOPL1     0      7.4441E-007 /_ -118.3 =  -3.5254E-007 +j -6.5564E-007
------------
7             1           102.44 /_ -177.1 =    -102.31 +j   -5.1062
7             2           102.44 /_   62.9 =     46.734 +j    91.158
7             3           102.44 /_  -57.1 =     55.578 +j   -86.052
7             0      2.0498E-008 /_   61.7 =  9.7079E-009 +j 1.8053E-008

= = = = = = = = = = = = = = = = = = =  = = = = = = = = = = =  = =

Power Conversion Elements

  Bus     Phase    Magnitude, A     Angle      (Real)   +j  (Imag)

ELEMENT = "Load.LOAD_TR1"
BT-TR1        1           668.52 /_  -55.3 =     380.99 +j   -549.33
BT-TR1        2           668.52 /_ -175.3 =    -666.23 +j   -55.284
BT-TR1        3           668.52 /_   64.7 =     285.24 +j    604.61
BT-TR1        0      1.3653E-007 /_  121.4 =  -7.1092E-008 +j 1.1656E-007

ELEMENT = "Load.LOAD_TR2"
BT-TR2        1           668.59 /_  -55.2 =     381.18 +j   -549.29
BT-TR2        2           668.59 /_ -175.2 =    -666.29 +j   -55.464
BT-TR2        3           668.59 /_   64.8 =     285.11 +j    604.76
BT-TR2        0      1.3661E-007 /_  121.4 =  -7.1137E-008 +j 1.1663E-007

ELEMENT = "Load.LOAD_TR3"
BT-TR3        1             1003 /_  -55.2 =     571.79 +j   -824.02
BT-TR3        2             1003 /_ -175.2 =    -999.51 +j   -83.174
BT-TR3        3             1003 /_   64.8 =     427.73 +j    907.19
BT-TR3        0      2.0495E-007 /_  121.4 =  -1.0671E-007 +j 1.7498E-007

ELEMENT = "Load.LOAD_TR4"
BT-TR4        1           668.68 /_  -55.2 =      381.2 +j   -549.38
BT-TR4        2           668.68 /_ -175.2 =    -666.38 +j   -55.443
BT-TR4        3           668.68 /_   64.8 =     285.17 +j    604.82
BT-TR4        0      1.3665E-007 /_  121.4 =  -7.1147E-008 +j 1.1667E-007

ELEMENT = "Load.LOAD_TR5"
BT-TR5        1           1003.1 /_  -55.3 =     571.67 +j   -824.23
BT-TR5        2           1003.1 /_ -175.3 =    -999.64 +j   -82.964
BT-TR5        3           1003.1 /_   64.7 =     427.97 +j    907.19
BT-TR5        0      2.0492E-007 /_  121.4 =  -1.0671E-007 +j 1.7494E-007

ELEMENT = "Load.LOAD_TR6"
BT-TR6        1           400.83 /_  -55.2 =     228.67 +j    -329.2
BT-TR6        2           400.83 /_ -175.2 =    -399.43 +j   -33.435
BT-TR6        3           400.83 /_   64.8 =     170.76 +j    362.63
BT-TR6        0      8.1917E-008 /_  121.4 =  -4.2698E-008 +j 6.9909E-008

ELEMENT = "Load.LOAD_TR7"
BT-TR7        1           300.35 /_  -55.2 =     171.41 +j   -246.64
BT-TR7        2           300.35 /_ -175.2 =     -299.3 +j   -25.131
BT-TR7        3           300.35 /_   64.8 =     127.89 +j    271.77
BT-TR7        0      6.1387E-008 /_  121.4 =  -3.2018E-008 +j 5.2375E-008

ELEMENT = "PVSystem.SFV_1"
TR_ACOPL1     1           3720.2 /_ -177.1 =    -3715.5 +j   -185.43
TR_ACOPL1     2           3720.2 /_   62.9 =     1697.2 +j    3310.5
TR_ACOPL1     3           3720.2 /_  -57.1 =     2018.4 +j     -3125
TR_ACOPL1     0       7.444E-007 /_   61.7 =  3.5256E-007 +j 6.5562E-007

